Version 4
SHEET 1 1212 1000
WIRE 384 32 96 32
WIRE 96 160 -16 160
WIRE -16 192 -16 160
WIRE 384 192 384 32
WIRE 384 192 320 192
WIRE 496 192 384 192
WIRE 672 192 496 192
WIRE 96 336 96 224
WIRE 352 336 96 336
WIRE 384 336 384 320
WIRE 384 336 352 336
WIRE 672 352 672 320
WIRE 160 560 112 560
WIRE 384 592 384 464
WIRE 160 720 160 624
WIRE 384 720 384 592
WIRE 384 720 160 720
FLAG 496 192 Vout
FLAG -16 160 Vn
FLAG 352 336 Vp
FLAG 672 352 Vled
FLAG 384 720 Vref
SYMBOL cktsym\\vsource -240 608 R0
SYMATTR Value 3.3
SYMATTR InstName Vdd
SYMBOL cktsym\\resistor 384 256 R0
SYMATTR Value {wc(9530,tola,4)}
SYMATTR InstName R4
SYMBOL cktsym\\resistor 384 400 R0
SYMATTR Value {wc(20k,tola,5)}
SYMATTR InstName R5
SYMBOL cktsym\\gnd_alt -16 320 R0
SYMATTR InstName U4
SYMBOL cktsym\\gnd_alt -240 672 R0
SYMATTR InstName U9
SYMBOL cktsym\\vdd -240 544 R0
SYMATTR InstName U2
SYMBOL cktsym\\gnd_alt 208 112 R180
SYMATTR InstName U3
SYMBOL cktsym\\vdd 208 272 R180
SYMATTR InstName U5
SYMBOL cktsym\\diode 672 416 R0
SYMATTR Value RED
SYMATTR InstName D1
SYMBOL cktsym\\gnd_alt 672 480 R0
SYMATTR InstName U6
SYMBOL cktsym\\resistor 672 256 R0
SYMATTR Value {wc(69.8,tola,6)}
SYMATTR InstName R6
SYMBOL cktsym\\resistor 112 496 M0
SYMATTR Value {wc(10k,tola,2)}
SYMATTR InstName R1
SYMBOL cktsym\\resistor 112 624 M0
SYMATTR Value {wc(14.3k,tola,1)}
SYMATTR InstName R2
SYMBOL cktsym\\vdd 112 432 R0
SYMATTR InstName U12
SYMBOL cktsym\\gnd_alt 112 688 R0
SYMATTR InstName U13
SYMBOL cktsym\\vdd 272 512 R0
SYMATTR InstName U14
SYMBOL cktsym\\gnd_alt 272 672 R0
SYMATTR InstName U15
SYMBOL cktsym\\resistor 96 96 R180
WINDOW 3 28 -16 Left 2
WINDOW 0 28 16 Left 2
SYMATTR Value {wc(3010k,tola,3)}
SYMATTR InstName R3
SYMBOL cktsym\\capacitor -16 256 M0
SYMATTR Value {wc(0.1µ,tolb,0)}
SYMATTR InstName C1
SYMBOL mcp602x 192 192 M180
SYMATTR InstName U10
SYMBOL mcp602x 256 592 R0
SYMATTR InstName U11
TEXT -256 776 Left 2 !.include engr2420.sub
TEXT -256 808 Left 2 !.tran 0 22.5 20 100u
TEXT -256 848 Left 2 !.func wc(nom,tol,index) if(run==numruns,nom,if(binary(run,index),nom*(1+tol),nom*(1-tol)))
TEXT -256 888 Left 2 !.func binary(run,index) floor(run/(2**index))-2*floor(run/(2**(index+1)))
TEXT -256 920 Left 2 !.param tola=.01 tolb=.05 numruns=128
TEXT -256 952 Left 2 !.step param run 0 128 1
TEXT -256 984 Left 2 !.model RED D(Is=3.835E-20 N=1.803 Rs=3)
